examples/national_grid/data/ireland/models/snv07.raw
<!DOCTYPE HTML PUBLIC "-//W3C//DTD HTML 4.0 Transitional//EN">
<!-- saved from url=(0071)http://www.eirgrid.com/EirgridPortal/uploads/Publications/snv07_web.raw -->
<HTML><HEAD>
<META http-equiv=Content-Type content="text/html; charset=windows-1252">
<META content="MSHTML 6.00.2900.3492" name=GENERATOR></HEAD>
<BODY><PRE>0,   100.00          / PSS/E-29.4    THU, JUL 22 2004  14:51
ESB NATIONAL GRID FORECAST STATEMENT 2004-2010
BASECASE SUMMER NIGHT VALLEY 2007
   10,'F_M_____',  38.0000,1,     0.000,     0.000,   1,   1,1.04146,   5.1535,   2
   11,'FMN_LOOP',  38.0000,1,     0.000,     0.000,   1,   1,1.03492,   3.7393,   2
   12,'BEDFORD ',  38.0000,1,     0.000,     0.000,   1,   1,1.02898,   4.5330,   2
   13,'M_R_____',  38.0000,1,     0.000,     0.000,   1,   1,1.03237,   4.5565,   2
   14,'F_I_____',  38.0000,1,     0.000,     0.000,   1,   1,1.02153,   5.2275,   2
   15,'I_M_____',  38.0000,1,     0.000,     0.000,   1,   1,1.02563,   4.3700,   2
   41,'TANEY   ', 110.0000,1,     0.000,     0.000,   1,   1,1.01204,   6.2394,   1
   51,'MISERY H', 110.0000,1,     0.000,     0.000,   1,   1,1.01505,   6.7375,   1
   52,'MISERY H',  38.0000,1,     0.000,     0.000,   1,   1,1.01505,   6.7375,   1
 1021,'ARDNACRU', 110.0000,1,     0.000,     0.000,   7,   1,1.00476,   6.2576,   1
 1041,'AGHADA  ', 110.0000,1,     0.000,     0.000,   3,   1,0.99695,   4.1940,   1
 1042,'AGHADA  ', 220.0000,1,     0.000,     0.000,   3,   1,0.99029,   4.8905,   1
 1061,'ARIGNA  ', 110.0000,1,     0.000,     0.000,   9,   1,1.00138,   9.1985,   2
 1081,'AHANE   ', 110.0000,1,     0.000,     0.000,   7,   1,1.01476,   6.1180,   2
 1101,'ANNER   ', 110.0000,1,     0.000,     0.000,   5,   3,0.99151,   3.8532,   5
 1121,'ARKLOW  ', 110.0000,1,     0.000,     0.000,   6,   1,1.01132,   7.8145,   1
 1122,'ARKLOW  ', 220.0000,1,     0.000,     0.000,   6,   1,1.03064,   7.5544,   1
 1141,'ATHLONE ', 110.0000,1,     0.000,     0.000,   8,   1,0.99472,   9.7998,   1
 1151,'ARKLOW B', 110.0000,2,     0.000,     0.000,   6,   1,1.01459,   8.1041,   1
 1161,'AUGHINIS', 110.0000,1,     0.000,     0.000,   7,   3,1.00000,   9.5748,   1
 1171,'SEALROCK', 110.0000,1,     0.000,     0.000,   7,   1,1.00019,   9.6267,   1
 1181,'ARVA    ', 110.0000,1,     0.000,     0.000,  10,   1,0.99504,   7.6201,   1
 1191,'SEALROCK', 110.0000,1,     0.000,     0.000,   7,   1,1.00019,   9.6267,   1
 1201,'ARTANE  ', 110.0000,1,     0.000,     0.000,   1,   1,1.01926,   6.3764,   2
 1221,'ATHY    ', 110.0000,1,     0.000,     0.000,   8,   1,1.00773,   7.5031,   1
 1231,'BALLYWAT', 110.0000,2,     0.000,     0.000,   6,   1,1.01163,   7.2214,   1
 1251,'BOOLTIAG', 110.0000,2,     0.000,     0.000,   7,   1,1.00101,   7.8403,   1
 1281,'BALLYLIC', 110.0000,1,     0.000,     0.000,   3,   1,0.98696,   4.1648,   2
 1301,'BALLYBEG', 110.0000,1,     0.000,     0.000,   6,   1,1.01228,   7.5212,   1
 1321,'BLAKE   ', 110.0000,1,     0.000,     0.000,   8,   1,1.00145,   7.7136,   2
 1341,'BINBANE ', 110.0000,1,     0.000,     0.000,   9,   1,0.98472,   9.0494,   2
 1361,'BALLYDIN', 110.0000,1,     0.000,     0.000,   5,   1,0.99479,   4.0769,   1
 1381,'BARNAHEL', 110.0000,1,     0.000,     0.000,   3,   1,0.99214,   3.8365,   1
 1401,'BELLACOR', 110.0000,1,     0.000,     0.000,   9,   1,0.99510,   8.7057,   1
 1421,'BLACKROC', 110.0000,1,     0.000,     0.000,   2,   2,1.01569,   7.4142,   2
 1441,'BANDON  ', 110.0000,1,     0.000,     0.000,   3,   1,0.98442,   3.7145,   1
 1461,'BARRYMOR', 110.0000,1,     0.000,     0.000,   5,   1,0.99935,   3.8541,   2
 1481,'BUTLERST', 110.0000,1,     0.000,     0.000,   5,   1,1.00381,   4.6461,   1
 1501,'BRINNY  ', 110.0000,1,     0.000,     0.000,   3,   1,0.98427,   3.7049,   5
 1511,'BRINNY  ', 110.0000,1,     0.000,     0.000,   3,   1,0.98427,   3.7054,   5
 1541,'BANOGE  ', 110.0000,1,     0.000,     0.000,   6,   1,1.00850,   7.2247,   1
 1581,'CABRA   ', 110.0000,1,     0.000,     0.000,   1,   2,1.01902,   6.3711,   2
 1601,'CLASHAVO', 110.0000,1,     0.000,     0.000,   3,   1,0.99518,   4.8538,   1
 1602,'CLASHAVO', 220.0000,1,     0.000,     0.000,   3,   1,0.99598,   6.1481,   1
 1621,'COOLROE ', 110.0000,1,     0.000,     0.000,   3,   1,0.99541,   3.8940,   1
 1631,'CORDERRY', 110.0000,1,     0.000,     0.000,   9,   1,1.00069,   9.2676,   1
 1641,'CASHLA  ', 110.0000,1,     0.000,     0.000,   9,   1,1.00274,  10.6598,   1
 1642,'CASHLA  ', 220.0000,1,     0.000,     0.000,   9,   1,1.00223,  12.1954,   1
 1661,'CASTLEBA', 110.0000,1,     0.000,     0.000,   9,   1,0.99765,   8.8268,   1
 1681,'CARRIGAD', 110.0000,1,     0.000,     0.000,   3,   1,0.99479,   4.3264,   1
 1701,'CATH_FAL', 110.0000,1,     0.000,     0.000,   9,   1,0.99177,   9.4769,   1
 1721,'CAHIR   ', 110.0000,1,     0.000,     0.000,   5,   1,0.99665,   4.2227,   1
 1741,'CARRICKM', 110.0000,1,     0.000,     0.000,   2,   2,1.01573,   7.4682,   2
 1742,'CARRICKM', 220.0000,1,     0.000,     0.000,   2,   2,1.03298,   8.3789,   1
 1761,'CLIFF   ', 110.0000,1,     0.000,     0.000,   9,   1,0.99179,   9.4766,   1
 1781,'CASTLEFA', 110.0000,1,     0.000,     0.000,   7,   3,0.99958,   9.5539,   5
 1791,'CASTLEFA', 110.0000,1,     0.000,     0.000,   7,   3,0.99958,   9.5539,   5
 1801,'COOKSTOW', 110.0000,1,     0.000,     0.000,   1,   2,1.00951,   6.2649,   2
 1821,'CLOON   ', 110.0000,1,     0.000,     0.000,   9,   1,1.00059,  10.1351,   2
 1841,'CRANE   ', 110.0000,1,     0.000,     0.000,   6,   1,1.00761,   6.7544,   1
 1861,'CARRICK ', 110.0000,1,     0.000,     0.000,   9,   1,1.00252,   8.9747,   1
 1871,'COLLEGE ', 110.0000,1,     0.000,     0.000,   2,   1,1.00764,   6.8543,   1
 1881,'CHARLEVI', 110.0000,1,     0.000,     0.000,   3,   1,1.00184,   4.6653,   1
 1901,'CARLOW  ', 110.0000,1,     0.000,     0.000,   8,   1,1.01597,   6.4389,   1
 1921,'COW CROS', 110.0000,1,     0.000,     0.000,   3,   1,0.99480,   3.8811,   1
 1931,'CUNGHILL', 110.0000,1,     0.000,     0.000,   9,   1,0.99858,   9.1157,   4
 1941,'CUSHALIN', 110.0000,1,     0.000,     0.000,   8,   1,1.00000,  11.7104,   1
 1961,'CASTLEVI', 110.0000,1,     0.000,     0.000,   3,   1,1.00060,   3.9049,   1
 1981,'CORRACLA', 110.0000,1,     0.000,     0.000,   9,   1,0.98691,   7.9011,   1
 2001,'CULLENAG', 110.0000,1,     0.000,     0.000,   5,   1,1.00429,   4.6960,   1
 2002,'CULLENAG', 220.0000,1,     0.000,     0.000,   5,   1,1.00572,   5.5741,   1
 2021,'CITY WES', 110.0000,1,     0.000,     0.000,   1,   1,1.00996,   6.2847,   2
 2041,'CORDUFF ', 110.0000,1,     0.000,     0.000,   2,   1,1.00842,   6.9270,   1
 2042,'CORDUFF ', 220.0000,1,     0.000,     0.000,   2,   1,1.03551,   8.2560,   1
 2081,'DUNKETTL', 110.0000,1,     0.000,     0.000,   3,   1,1.00060,   3.9049,   5
 2101,'DUNDALK ', 110.0000,1,     0.000,     0.000,  10,   1,1.00275,   6.7093,   1
 2121,'DRUMLINE', 110.0000,1,     0.000,     0.000,   7,   1,0.99372,   6.4513,   1
 2141,'DUNGARVA', 110.0000,1,     0.000,     0.000,   5,   1,0.99974,   4.0076,   1
 2161,'DOON    ', 110.0000,1,     0.000,     0.000,   5,   1,0.99212,   3.8905,   1
 2181,'DRYBRIDG', 110.0000,1,     0.000,     0.000,  10,   1,0.99919,   6.1776,   1
 2202,'DUNSTOWN', 220.0000,1,     0.000,     0.000,   2,   1,1.02625,   7.8881,   1
 2204,'DUNSTOWN', 380.0000,1,     0.000,     0.000,   2,   1,1.03389,  10.9340,   1
 2221,'DUNMANWA', 110.0000,1,     0.000,     0.000,   3,   1,0.98681,   4.1323,   1
 2231,'DERRYBRI', 110.0000,2,     0.000,     0.000,   9,   1,1.00987,   9.8301,   1
 2241,'DALLOW  ', 110.0000,1,     0.000,     0.000,   5,   1,0.99944,   9.6780,   2
 2261,'DERRYIRO', 110.0000,1,     0.000,     0.000,   2,   1,1.00266,   5.6180,   1
 2281,'DALTON  ', 110.0000,1,     0.000,     0.000,   9,   1,0.99755,   9.2673,   1
 2301,'DUNFIRTH', 110.0000,1,     0.000,     0.000,   2,   1,1.00356,   5.8445,   2
 2321,'DRUMKEEN', 110.0000,1,     0.000,     0.000,   9,   1,0.99389,  11.0623,   1
 2361,'ENNIS   ', 110.0000,1,     0.000,     0.000,   7,   1,0.99733,   7.4597,   1
 2481,'FASS EAS', 110.0000,1,     0.000,     0.000,   2,   2,1.01396,   7.3515,   2
 2491,'FASS WES', 110.0000,1,     0.000,     0.000,   2,   2,1.01389,   7.3520,   2
 2521,'FLAGFORD', 110.0000,1,     0.000,     0.000,   9,   1,1.00333,   9.0406,   1
 2522,'FLAGFORD', 220.0000,1,     0.000,     0.000,   9,   1,1.00409,   9.6523,   1
 2541,'FRN ST A', 110.0000,1,     0.000,     0.000,   1,   2,1.01481,   6.6998,   2
 2551,'FRN ST B', 110.0000,1,     0.000,     0.000,   1,   2,1.01221,   6.4097,   2
 2561,'FIN_URBA', 110.0000,1,     0.000,     0.000,   2,   2,1.01937,   6.4583,   1
 2562,'FINGLAS ', 220.0000,1,     0.000,     0.000,   2,   2,1.03749,   8.2542,   1
 2571,'FIN_RURA', 110.0000,1,     0.000,     0.000,   2,   2,1.00751,   6.8342,   1
 2681,'GILRA   ', 110.0000,1,     0.000,     0.000,   9,   3,0.99978,   8.8310,   2
 2701,'GLASMORE', 110.0000,1,     0.000,     0.000,   2,   2,1.01641,   6.1190,   2
 2721,'GRIFFINR', 110.0000,1,     0.000,     0.000,   2,   2,1.00868,   6.4467,   2
 2731,'GRIFFINR', 110.0000,1,     0.000,     0.000,   2,   1,1.00860,   6.4584,   2
 2741,'GREAT IS', 110.0000,1,     0.000,     0.000,   6,   1,1.01002,   5.1049,   1
 2742,'GREAT IS', 220.0000,1,     0.000,     0.000,   6,   1,1.01009,   6.0098,   1
 2761,'GRANGE  ', 110.0000,1,     0.000,     0.000,   1,   2,1.01948,   6.3652,   2
 2781,'GALWAY  ', 110.0000,1,     0.000,     0.000,   9,   1,0.99866,  10.3666,   1
 2801,'GOLAGH  ', 110.0000,1,     0.000,     0.000,   9,   1,0.99196,  10.2868,   1
 2821,'GORTAWEE', 110.0000,1,     0.000,     0.000,   9,   1,0.98596,   7.5953,   1
 2841,'GORMAN  ', 110.0000,1,     0.000,     0.000,  10,   1,1.00205,   6.2245,   1
 2842,'GORMAN  ', 220.0000,1,     0.000,     0.000,  10,   1,1.01921,   7.4552,   1
 2861,'GRANGE C', 110.0000,1,     0.000,     0.000,   1,   1,1.00825,   6.0875,   2
 2881,'GLENLARA', 110.0000,1,     0.000,     0.000,   3,   1,0.99889,   4.4539,   2
 2921,'HAULBOWL', 110.0000,1,     0.000,     0.000,   3,   3,0.99281,   3.8819,   5
 2931,'HAULBOWL', 110.0000,1,     0.000,     0.000,   3,   3,0.99215,   3.8362,   5
 2941,'HAROLDS ', 110.0000,1,     0.000,     0.000,   1,   2,1.01491,   6.7139,   2
 2962,'HUNTSTOW', 220.0000,1,     0.000,     0.000,   2,   1,1.03739,   8.3355,   1
 2981,'HARNETTS', 110.0000,1,     0.000,     0.000,   3,   1,0.99447,   4.3193,   2
 3061,'INISCARR', 110.0000,1,     0.000,     0.000,   3,   1,0.99527,   4.0211,   1
 3081,'INCHICOR', 110.0000,1,     0.000,     0.000,   1,   2,1.01268,   6.4463,   2
 3082,'INCHICOR', 220.0000,1,     0.000,     0.000,   2,   2,1.03797,   7.9169,   1
 3101,'IKERRIN ', 110.0000,1,     0.000,     0.000,   5,   1,0.99564,   6.2662,   2
 3122,'IRISHTOW', 220.0000,1,     0.000,     0.000,   2,   1,1.03647,   8.4118,   1
 3201,'KNOCKRAH', 110.0000,1,     0.000,     0.000,   3,   1,1.00447,   4.0093,   1
 3202,'KNOCKRAH', 220.0000,1,     0.000,     0.000,   3,   1,0.98927,   5.0618,   1
 3221,'KILBARRY', 110.0000,1,     0.000,     0.000,   3,   1,0.99633,   3.7319,   1
 3241,'KILTEEL ', 110.0000,1,     0.000,     0.000,   8,   1,1.00225,   7.1608,   2
 3261,'KILKENNY', 110.0000,1,     0.000,     0.000,   8,   1,1.00801,   5.3546,   1
 3281,'KILLONAN', 110.0000,1,     0.000,     0.000,   7,   1,1.01473,   6.1185,   1
 3282,'KILLONAN', 220.0000,1,     0.000,     0.000,   7,   1,0.98399,   7.3660,   1
 3301,'KNOCKERA', 110.0000,1,     0.000,     0.000,   7,   1,0.99388,   5.7496,   1
 3321,'KNOCKUMB', 110.0000,1,     0.000,     0.000,  10,   3,0.99637,   5.9350,   5
 3341,'KELLIS  ', 110.0000,1,     0.000,     0.000,   8,   1,1.01750,   6.3847,   1
 3342,'KELLIS  ', 220.0000,1,     0.000,     0.000,   8,   1,1.01540,   6.8426,   1
 3361,'KILTOY  ', 110.0000,1,     0.000,     0.000,   9,   3,0.98980,  10.8473,   5
 3371,'KILTOY  ', 110.0000,1,     0.000,     0.000,   9,   3,0.98971,  10.8418,   5
 3381,'KINNEGAD', 110.0000,1,     0.000,     0.000,   2,   1,1.00174,   5.5618,   1
 3401,'KILLOTER', 110.0000,1,     0.000,     0.000,   5,   1,1.00470,   4.7040,   1
 3421,'KILMORE ', 110.0000,1,     0.000,     0.000,   1,   1,1.01924,   6.3801,   2
 3441,'KILMURRY', 110.0000,1,     0.000,     0.000,   8,   1,1.00887,   5.0692,   1
 3501,'LANESBOR', 110.0000,1,     0.000,     0.000,   9,   1,1.00000,  10.5841,   1
 3521,'LOUTH   ', 110.0000,1,     0.000,     0.000,  10,   1,1.00877,   7.0981,   1
 3522,'LOUTH   ', 220.0000,1,     0.000,     0.000,  10,   1,1.01985,   7.7545,   1
 3541,'LIMERICK', 110.0000,1,     0.000,     0.000,   7,   1,1.00881,   6.3860,   1
 3561,'LISDRUM ', 110.0000,1,     0.000,     0.000,  10,   1,0.99810,   6.9326,   1
 3581,'LETTERKE', 110.0000,1,     0.000,     0.000,   9,   1,0.99096,  10.9225,   1
 3601,'LIBERTY ', 110.0000,1,     0.000,     0.000,   3,   1,0.99525,   3.6689,   2
 3611,'LIBERTY ', 110.0000,1,     0.000,     0.000,   3,   1,0.99527,   3.6738,   2
 3621,'LISHEEN ', 110.0000,1,     0.000,     0.000,   5,   1,0.99394,   4.5250,   1
 3761,'MACETOWN', 110.0000,1,     0.000,     0.000,   2,   2,1.00571,   6.6648,   1
 3781,'MCDERMOT', 110.0000,1,     0.000,     0.000,   1,   2,1.01902,   6.3550,   2
 3801,'MIDLETON', 110.0000,1,     0.000,     0.000,   3,   1,1.00031,   3.9355,   1
 3821,'MEATH HI', 110.0000,1,     0.000,     0.000,  10,   1,1.00536,   6.9619,   2
 3841,'MAYNOOTH', 110.0000,1,     0.000,     0.000,   2,   2,1.00901,   6.5031,   1
 3842,'MAYNOOTH', 220.0000,1,     0.000,     0.000,   2,   2,1.02836,   7.7447,   1
 3861,'MILLTOWN', 110.0000,1,     0.000,     0.000,   1,   2,1.01504,   6.7532,   2
 3871,'MILLTOWN', 110.0000,1,     0.000,     0.000,   1,   2,1.01209,   6.2516,   2
 3881,'MACROOM ', 110.0000,1,     0.000,     0.000,   3,   1,0.99472,   4.3450,   1
 3901,'MONETEEN', 110.0000,1,     0.000,     0.000,   7,   1,1.00595,   6.8760,   1
 3941,'MONEYPOI', 110.0000,1,     0.000,     0.000,   7,   1,1.00151,   7.8992,   1
 3942,'MONEYPOI', 220.0000,1,     0.000,     0.000,   7,   1,1.01789,  10.7623,   1
 3944,'MNYPG1G3', 380.0000,1,     0.000,     6.000,   2,   1,1.04628,  15.2466,   1
 3954,'MNYPG2  ', 380.0000,1,     0.000,     6.000,   7,   1,1.05000,  13.2560,   1
 3961,'MARINA  ', 110.0000,1,     0.000,     0.000,   3,   1,0.99528,   3.6753,   1
 3981,'MUNGRET ', 110.0000,1,     0.000,     0.000,   7,   3,1.00580,   6.8670,   5
 3991,'MUNGRET ', 110.0000,1,     0.000,     0.000,   7,   3,1.00581,   6.8674,   5
 4001,'MULLINGA', 110.0000,1,     0.000,     0.000,   9,   1,0.99692,   8.6025,   1
 4021,'MALLOW  ', 110.0000,1,     0.000,     0.000,   3,   1,0.99883,   4.1288,   1
 4041,'MOY     ', 110.0000,1,     0.000,     0.000,   9,   1,0.99339,   8.5568,   1
 4061,'MULLAGHA', 110.0000,1,     0.000,     0.000,  10,   1,1.00395,   6.7883,   2
 4071,'MEENTYCA', 110.0000,2,     0.000,     0.000,   9,   1,0.99584,  11.3089,   1
 4081,'MONREAD ', 110.0000,1,     0.000,     0.000,   8,   1,1.00080,   7.6120,   1
 4201,'NEWBRIDG', 110.0000,1,     0.000,     0.000,   8,   1,0.99985,   8.3229,   1
 4221,'NAVAN   ', 110.0000,1,     0.000,     0.000,  10,   1,1.00003,   6.1603,   1
 4242,'NORTH WA', 220.0000,1,     0.000,     0.000,   2,   2,1.03988,   7.9724,   1
 4261,'NENAGH  ', 110.0000,1,     0.000,     0.000,   7,   1,1.00996,   5.7845,   1
 4281,'NANGOR  ', 110.0000,1,     0.000,     0.000,   1,   1,1.00799,   6.0691,   1
 4341,'OLDCOURT', 110.0000,1,     0.000,     0.000,   3,   3,0.99481,   3.8810,   5
 4351,'OLDCOURT', 110.0000,1,     0.000,     0.000,   3,   3,0.99481,   3.8810,   5
 4361,'OUGHTRAG', 110.0000,1,     0.000,     0.000,   7,   1,0.99873,   6.6185,   2
 4382,'OLDSTREE', 220.0000,1,     0.000,     0.000,   9,   1,1.00961,  15.2062,   1
 4384,'OLDSTREE', 380.0000,1,     0.000,     0.000,   9,   1,1.03611,  14.0232,   1
 4441,'POLLAPHU', 110.0000,1,     0.000,     0.000,   8,   1,1.01369,   6.2490,   1
 4451,'POOLBEG ', 110.0000,1,     0.000,     0.000,   1,   1,1.01507,   6.7862,   2
 4461,'POOLBEG ', 110.0000,1,     0.000,     0.000,   1,   1,1.01482,   6.8230,   2
 4462,'POOLBEG ', 220.0000,1,     0.000,     0.000,   2,   2,1.04000,   7.8750,   1
 4471,'POOLBEG ', 110.0000,1,     0.000,     0.000,   1,   1,1.01483,   6.8216,   2
 4481,'PORTLAOI', 110.0000,1,     0.000,     0.000,   8,   1,1.00209,   8.8737,   1
 4501,'PLATIN  ', 110.0000,1,     0.000,     0.000,  10,   3,0.99812,   6.1063,   1
 4522,'PROSPECT', 220.0000,1,     0.000,     0.000,   7,   1,1.01246,  10.1227,   1
 4621,'RYEBROOK', 110.0000,1,     0.000,     0.000,   2,   3,0.99785,   5.8489,   1
 4651,'RINGSEND', 110.0000,1,     0.000,     0.000,   1,   2,1.01507,   6.7864,   2
 4681,'RATHKEAL', 110.0000,1,     0.000,     0.000,   7,   1,1.01179,   7.1500,   1
 4701,'RICHMOND', 110.0000,1,     0.000,     0.000,   9,   1,0.99752,  10.4155,   2
 4721,'RAFFEEN ', 110.0000,1,     0.000,     0.000,   3,   1,0.99279,   3.8823,   1
 4722,'RAFFEEN ', 220.0000,1,     0.000,     0.000,   3,   1,0.99031,   4.6806,   1
 4741,'RINAWADE', 110.0000,1,     0.000,     0.000,   2,   3,1.00564,   6.2105,   1
 4761,'RINGASKI', 110.0000,1,     0.000,     0.000,   3,   1,0.99272,   3.8779,   2
 4781,'RATRUSSA', 110.0000,1,     0.000,     0.000,  10,   1,1.00389,   8.0434,   1
 4901,'SHELTON ', 110.0000,1,     0.000,     0.000,   6,   3,1.01133,   7.8145,   5
...
0 / END OF BUS DATA, BEGIN LOAD DATA
   10,'LD',1,   1,   1,    16.110,     0.510,     0.000,     0.000,     0.000,     0.000,   2
   11,'LD',1,   1,   1,    33.950,     4.220,     0.000,     0.000,     0.000,     0.000,   2
   12,'LD',1,   1,   1,    26.810,     7.030,     0.000,     0.000,     0.000,     0.000,   2
   13,'LD',1,   1,   1,    26.590,     3.570,     0.000,     0.000,     0.000,     0.000,   2
   14,'LD',1,   1,   1,    15.700,    10.500,     0.000,     0.000,     0.000,     0.000,   2
   15,'LD',1,   1,   1,    29.960,     7.750,     0.000,     0.000,     0.000,     0.000,   2
   41,'LD',1,   1,   1,     4.960,     1.710,     0.000,     0.000,     0.000,     0.000,   2
   51,'LD',1,   1,   1,     1.950,     0.700,     0.000,     0.000,     0.000,     0.000,   2
 1101,'LD',1,   5,   2,    11.000,     3.850,     0.000,     0.000,     0.000,     0.000,   5
 1101,'MI',0,   5,   2,     6.500,     1.950,     0.000,     0.000,     0.000,     0.000,   5
 1871,'LD',1,   2,   2,    16.000,     5.250,     0.000,     0.000,     0.000,     0.000,   5
 2821,'LD',1,   9,   2,    16.000,     5.550,     0.000,     0.000,     0.000,     0.000,   5
 2821,'MI',0,   9,   2,     6.000,     1.800,     0.000,     0.000,     0.000,     0.000,   5
 3321,'LD',1,  10,   2,    22.000,     7.480,     0.000,     0.000,     0.000,     0.000,   5
 3321,'MI',0,  10,   2,     1.000,     0.300,     0.000,     0.000,     0.000,     0.000,   5
 3421,'LD',1,   1,   2,    12.000,     4.060,     0.000,     0.000,     0.000,     0.000,   5
 3621,'LD',1,   5,   2,    10.000,     3.280,     0.000,     0.000,     0.000,     0.000,   5
 3621,'MI',0,   5,   2,     2.000,     0.600,     0.000,     0.000,     0.000,     0.000,   5
 3621,'PK',0,   5,   2,     5.000,     1.500,     0.000,     0.000,     0.000,     0.000,   5
 4501,'LD',1,  10,   2,    27.000,     9.170,     0.000,     0.000,     0.000,     0.000,   5
 4501,'MI',0,  10,   2,     6.500,     1.950,     0.000,     0.000,     0.000,     0.000,   5
 5031,'LD',1,   2,   1,     4.040,     1.620,     0.000,     0.000,     0.000,     0.000,   2
10204,'LD',1,   7,   1,     9.170,     1.330,     0.000,     0.000,     0.000,     0.000,   2
10205,'LD',1,   7,   1,    16.580,     5.420,     0.000,     0.000,     0.000,     0.000,   2
10471,'LD',0,   3,   1,    12.150,     4.370,     0.000,     0.000,     0.000,     0.000,   3
10602,'LD',1,   9,   1,     1.020,     0.100,     0.000,     0.000,     0.000,     0.000,   2
11204,'LD',1,   6,   1,     4.900,     2.820,     0.000,     0.000,     0.000,     0.000,   2
11404,'LD',1,   9,   1,    19.150,     7.030,     0.000,     0.000,     0.000,     0.000,   2
11671,'LD',1,   7,   1,     1.090,     0.390,     0.000,     0.000,     0.000,     0.000,   1
11672,'LD',1,   7,   1,     1.090,     0.390,     0.000,     0.000,     0.000,     0.000,   4
12001,'LD',1,   1,   1,     3.870,     0.970,     0.000,     0.000,     0.000,     0.000,   2
12202,'LD',1,   8,   1,     4.650,     1.540,     0.000,     0.000,     0.000,     0.000,   2
12804,'LD',1,   3,   1,     3.060,     1.020,     0.000,     0.000,     0.000,     0.000,   2
13001,'LD',1,   6,   1,     5.210,     2.060,     0.000,     0.000,     0.000,     0.000,   2
13204,'LD',1,   8,   1,     5.480,     1.650,     0.000,     0.000,     0.000,     0.000,   2
13404,'LD',1,   9,   1,     7.540,     2.850,     0.000,     0.000,     0.000,     0.000,   2
13601,'LD',1,   5,   2,     5.900,     1.930,     0.000,     0.000,     0.000,     0.000,   5
13601,'MI',0,   5,   2,     1.590,     0.470,     0.000,     0.000,     0.000,     0.000,   5
13604,'LD',1,   5,   1,     1.330,     0.820,     0.000,     0.000,     0.000,     0.000,   2
13802,'LD',1,   3,   1,    19.780,     5.200,     0.000,     0.000,     0.000,     0.000,   2
13804,'LD',1,   3,   1,    10.190,     2.960,     0.000,     0.000,     0.000,     0.000,   2
14002,'LD',1,   9,   1,     1.220,     0.610,     0.000,     0.000,     0.000,     0.000,   2
14204,'LD',1,   2,   1,    19.910,     1.200,     0.000,     0.000,     0.000,     0.000,   2
14401,'LD',1,   3,   1,     3.130,     0.910,     0.000,     0.000,     0.000,     0.000,   2
14404,'LD',1,   3,   1,     7.880,     3.880,     0.000,     0.000,     0.000,     0.000,   2
14604,'LD',1,   5,   1,     8.770,     3.670,     0.000,     0.000,     0.000,     0.000,   2
14804,'LD',1,   5,   1,    14.970,     3.710,     0.000,     0.000,     0.000,     0.000,   2
15001,'LD',1,   3,   2,     4.200,     1.380,     0.000,     0.000,     0.000,     0.000,   5
15001,'MI',0,   3,   2,     2.290,     0.680,     0.000,     0.000,     0.000,     0.000,   5
15401,'LD',1,   6,   1,     4.700,     1.260,     0.000,     0.000,     0.000,     0.000,   2
15801,'LD',1,   1,   1,     4.080,     1.330,     0.000,     0.000,     0.000,     0.000,   2
16202,'LD',1,   3,   1,     2.550,     0.820,     0.000,     0.000,     0.000,     0.000,   2
16604,'LD',1,   9,   1,    22.490,     6.590,     0.000,     0.000,     0.000,     0.000,   2
17004,'LD',1,   9,   1,     6.220,     1.830,     0.000,     0.000,     0.000,     0.000,   2
17204,'LD',1,   5,   1,     2.510,     0.790,     0.000,     0.000,     0.000,     0.000,   2
17404,'LD',1,   2,   1,    12.130,     3.980,     0.000,     0.000,     0.000,     0.000,   2
17802,'LD',1,   7,   2,    44.000,    14.460,     0.000,     0.000,     0.000,     0.000,   5
17802,'MI',0,   7,   2,     5.000,     1.500,     0.000,     0.000,     0.000,     0.000,   5
18004,'LD',1,   1,   1,    26.200,    12.230,     0.000,     0.000,     0.000,     0.000,   2
18204,'LD',1,   9,   1,     3.400,     1.530,     0.000,     0.000,     0.000,     0.000,   2
18402,'LD',1,   6,   1,     1.430,     0.410,     0.000,     0.000,     0.000,     0.000,   2
18404,'LD',1,   6,   1,     4.960,     1.800,     0.000,     0.000,     0.000,     0.000,   2
18604,'LD',1,   9,   1,    10.780,     3.850,     0.000,     0.000,     0.000,     0.000,   2
18804,'LD',1,   3,   1,     5.010,     2.160,     0.000,     0.000,     0.000,     0.000,   2
19004,'LD',1,   8,   1,     6.930,     0.940,     0.000,     0.000,     0.000,     0.000,   2
19204,'LD',1,   3,   1,     8.350,     3.060,     0.000,     0.000,     0.000,     0.000,   2
19471,'LD',1,   8,   1,     8.360,     3.000,     0.000,     0.000,     0.000,     0.000,   4
19601,'LD',1,   3,   1,     6.930,     2.240,     0.000,     0.000,     0.000,     0.000,   2
20201,'LD',1,   1,   1,     4.680,     1.530,     0.000,     0.000,     0.000,     0.000,   2
21004,'LD',1,  10,   1,    19.870,     5.710,     0.000,     0.000,     0.000,     0.000,   2
21204,'LD',1,   7,   1,    29.050,     8.870,     0.000,     0.000,     0.000,     0.000,   2
21404,'LD',1,   5,   1,    11.110,     2.550,     0.000,     0.000,     0.000,     0.000,   2
21604,'LD',1,   5,   1,    10.090,     1.630,     0.000,     0.000,     0.000,     0.000,   2
21804,'LD',1,  10,   1,    20.390,     4.790,     0.000,     0.000,     0.000,     0.000,   2
22204,'LD',1,   3,   1,    11.520,     4.380,     0.000,     0.000,     0.000,     0.000,   2
22404,'LD',1,   5,   1,     3.670,     1.630,     0.000,     0.000,     0.000,     0.000,   2
22804,'LD',1,   9,   1,     5.270,     1.530,     0.000,     0.000,     0.000,     0.000,   2
23001,'LD',1,   2,   1,     2.370,     0.800,     0.000,     0.000,     0.000,     0.000,   2
23604,'LD',1,   7,   1,    18.440,     6.830,     0.000,     0.000,     0.000,     0.000,   2
24804,'LD',1,   2,   1,    18.850,     5.500,     0.000,     0.000,     0.000,     0.000,   2
25604,'LD',1,   2,   1,    37.110,     8.960,     0.000,     0.000,     0.000,     0.000,   2
26802,'LD',1,   9,   2,    12.000,     3.940,     0.000,     0.000,     0.000,     0.000,   5
26802,'MI',0,   9,   2,     2.000,     0.600,     0.000,     0.000,     0.000,     0.000,   5
27004,'LD',1,   2,   1,    14.310,     0.510,     0.000,     0.000,     0.000,     0.000,   2
27204,'LD',1,   2,   1,    19.050,     0.610,     0.000,     0.000,     0.000,     0.000,   2
27404,'LD',1,   6,   1,     4.080,     2.040,     0.000,     0.000,     0.000,     0.000,   2
27471,'LD',0,   6,   1,     3.000,     1.080,     0.000,     0.000,     0.000,     0.000,   3
27472,'LD',0,   6,   1,     3.000,     1.080,     0.000,     0.000,     0.000,     0.000,   3
27473,'LD',0,   6,   1,     8.040,     2.890,     0.000,     0.000,     0.000,     0.000,   3
27604,'LD',1,   1,   1,    13.760,     4.490,     0.000,     0.000,     0.000,     0.000,   2
27802,'LD',1,   9,   1,     4.040,     1.350,     0.000,     0.000,     0.000,     0.000,   2
27804,'LD',1,   9,   1,    48.160,     9.140,     0.000,     0.000,     0.000,     0.000,   2
28604,'LD',1,   1,   1,     4.300,     1.200,     0.000,     0.000,     0.000,     0.000,   2
28804,'LD',1,   3,   1,     4.040,     1.430,     0.000,     0.000,     0.000,     0.000,   2
29401,'LD',1,   1,   1,     5.400,     1.830,     0.000,     0.000,     0.000,     0.000,   2
29671,'LD',1,   2,   2,     4.920,     1.770,     0.000,     0.000,     0.000,     0.000,   4
29801,'LD',1,   3,   1,     3.000,     0.340,     0.000,     0.000,     0.000,     0.000,   2
30804,'LD',1,   1,   1,    23.840,     3.490,     0.000,     0.000,     0.000,     0.000,   2
31004,'LD',1,   5,   1,     6.630,     2.550,     0.000,     0.000,     0.000,     0.000,   2
31271,'LD',1,   2,   2,     4.980,     1.790,     0.000,     0.000,     0.000,     0.000,   4
32201,'LD',1,   3,   1,     3.980,     1.330,     0.000,     0.000,     0.000,     0.000,   2
32204,'LD',1,   3,   1,    29.870,     5.500,     0.000,     0.000,     0.000,     0.000,   2
32404,'LD',1,   8,   1,     5.620,     3.230,     0.000,     0.000,     0.000,     0.000,   2
32604,'LD',1,   8,   1,    13.560,     3.360,     0.000,     0.000,     0.000,     0.000,   2
33004,'LD',1,   7,   1,    18.230,     3.980,     0.000,     0.000,     0.000,     0.000,   2
33601,'LD',1,   9,   2,    18.000,     5.910,     0.000,     0.000,     0.000,     0.000,   5
33601,'MI',0,   9,   2,     4.000,     1.200,     0.000,     0.000,     0.000,     0.000,   5
33801,'LD',1,   2,   2,     7.700,     2.530,     0.000,     0.000,     0.000,     0.000,   5
33801,'MI',0,   2,   2,     2.290,     0.680,     0.000,     0.000,     0.000,     0.000,   5
34001,'LD',1,   5,   1,     3.360,     0.670,     0.000,     0.000,     0.000,     0.000,   2
34404,'LD',1,   8,   1,     6.390,     2.090,     0.000,     0.000,     0.000,     0.000,   2
35004,'LD',1,   9,   1,     5.500,     1.830,     0.000,     0.000,     0.000,     0.000,   2
35078,'LD',1,   9,   3,     6.160,     2.220,     0.000,     0.000,     0.000,     0.000,   3
35404,'LD',1,   7,   1,    28.540,     6.630,     0.000,     0.000,     0.000,     0.000,   2
35604,'LD',1,  10,   1,     9.580,     2.240,     0.000,     0.000,     0.000,     0.000,   2
35804,'LD',1,   9,   1,    13.970,     1.430,     0.000,     0.000,     0.000,     0.000,   2
36001,'LD',1,   3,   1,     5.100,     1.630,     0.000,     0.000,     0.000,     0.000,   2
37601,'LD',1,   2,   1,     5.810,     1.940,     0.000,     0.000,     0.000,     0.000,   2
37602,'LD',1,   2,   2,     5.000,     1.640,     0.000,     0.000,     0.000,     0.000,   5
37602,'MI',0,   2,   2,     6.000,     1.800,     0.000,     0.000,     0.000,     0.000,   5
38001,'LD',1,   3,   1,     2.310,     0.760,     0.000,     0.000,     0.000,     0.000,   2
38004,'LD',1,   3,   1,     6.970,     2.000,     0.000,     0.000,     0.000,     0.000,   2
38204,'LD',1,  10,   1,    11.620,     3.870,     0.000,     0.000,     0.000,     0.000,   2
38804,'LD',1,   3,   1,     2.190,     0.380,     0.000,     0.000,     0.000,     0.000,   2
39471,'LD',1,   9,   1,     9.820,     3.530,     0.000,     0.000,     0.000,     0.000,   3
39472,'LD',1,   2,   2,     9.820,     3.530,     0.000,     0.000,     0.000,     0.000,   3
39473,'LD',1,   7,   1,     9.820,     3.530,     0.000,     0.000,     0.000,     0.000,   3
39601,'LD',1,   3,   1,     6.930,     1.630,     0.000,     0.000,     0.000,     0.000,   2
39672,'LD',0,   3,   1,     3.000,     1.080,     0.000,     0.000,     0.000,     0.000,   3
39675,'LD',0,   3,   1,     5.040,     1.810,     0.000,     0.000,     0.000,     0.000,   3
39801,'LD',1,   7,   2,    15.000,     4.930,     0.000,     0.000,     0.000,     0.000,   5
39801,'MI',0,   7,   2,     7.000,     2.100,     0.000,     0.000,     0.000,     0.000,   5
39801,'PK',0,   7,   2,     5.000,     1.500,     0.000,     0.000,     0.000,     0.000,   5
40004,'LD',1,   9,   1,     9.170,     3.060,     0.000,     0.000,     0.000,     0.000,   2
40204,'LD',1,   3,   1,     4.840,    -0.100,     0.000,     0.000,     0.000,     0.000,   2
40404,'LD',1,   9,   1,    10.090,     2.340,     0.000,     0.000,     0.000,     0.000,   2
40602,'LD',1,  10,   2,     8.000,     2.620,     0.000,     0.000,     0.000,     0.000,   5
40801,'LD',1,   8,   1,     4.470,     1.770,     0.000,     0.000,     0.000,     0.000,   2
42004,'LD',1,   8,   1,    11.280,     3.320,     0.000,     0.000,     0.000,     0.000,   2
42204,'LD',1,  10,   1,    15.700,     8.550,     0.000,     0.000,     0.000,     0.000,   2
42604,'LD',1,   7,   1,     5.850,     1.920,     0.000,     0.000,     0.000,     0.000,   2
42802,'LD',1,   1,   2,    26.000,     8.540,     0.000,     0.000,     0.000,     0.000,   5
43604,'LD',1,   7,   1,    10.190,     2.140,     0.000,     0.000,     0.000,     0.000,   2
44671,'LD',0,   2,   2,     5.520,     1.980,     0.000,     0.000,     0.000,     0.000,   3
44672,'LD',0,   2,   2,     5.520,     1.980,     0.000,     0.000,     0.000,     0.000,   3
44673,'LD',0,   2,   2,    13.500,     4.860,     0.000,     0.000,     0.000,     0.000,   3
44804,'LD',1,   8,   1,    13.660,     3.170,     0.000,     0.000,     0.000,     0.000,   2
46210,'LD',1,   2,   2,    24.000,     7.880,     0.000,     0.000,     0.000,     0.000,   5
46214,'LD',1,   2,   2,    21.400,     7.030,     0.000,     0.000,     0.000,     0.000,   5
46224,'LD',1,   2,   2,    31.000,    10.180,     0.000,     0.000,     0.000,     0.000,   5
46501,'LD',1,   1,   1,     0.610,     0.200,     0.000,     0.000,     0.000,     0.000,   2
46804,'LD',1,   7,   1,     9.160,     2.450,     0.000,     0.000,     0.000,     0.000,   2
47004,'LD',1,   9,   1,     6.730,     2.040,     0.000,     0.000,     0.000,     0.000,   2
47402,'LD',1,   2,   2,    16.000,     5.250,     0.000,     0.000,     0.000,     0.000,   5
47601,'LD',1,   3,   1,     1.220,     0.410,     0.000,     0.000,     0.000,     0.000,   2
47802,'LD',1,  10,   1,     0.730,     0.260,     0.000,     0.000,     0.000,     0.000,   4
49478,'LD',1,   5,   1,     8.970,     3.230,     0.000,     0.000,     0.000,     0.000,   3
49604,'LD',1,  10,   1,    23.240,     9.280,     0.000,     0.000,     0.000,     0.000,   2
49804,'LD',1,   9,   1,    13.760,     3.570,     0.000,     0.000,     0.000,     0.000,   2
50004,'LD',1,   9,   1,     6.630,     3.060,     0.000,     0.000,     0.000,     0.000,   2
50276,'LD',0,   2,   2,    10.020,     3.610,     0.000,     0.000,     0.000,     0.000,   3
50604,'LD',1,   8,   1,     6.090,     2.450,     0.000,     0.000,     0.000,     0.000,   2
51471,'LD',0,   7,   1,     3.000,     1.080,     0.000,     0.000,     0.000,     0.000,   3
51472,'LD',0,   7,   1,     3.000,     1.080,     0.000,     0.000,     0.000,     0.000,   3
51473,'LD',0,   7,   1,    15.300,     5.510,     0.000,     0.000,     0.000,     0.000,   3
51474,'LD',0,   7,   1,    15.300,     5.510,     0.000,     0.000,     0.000,     0.000,   3
51771,'LD',1,   9,   1,     4.990,     1.790,     0.000,     0.000,     0.000,     0.000,   4
51801,'LD',1,   1,   1,     4.080,     1.020,     0.000,     0.000,     0.000,     0.000,   2
51804,'LD',1,   3,   1,    13.560,     0.200,     0.000,     0.000,     0.000,     0.000,   2
52204,'LD',1,   7,   1,     2.850,     0.610,     0.000,     0.000,     0.000,     0.000,   2
52604,'LD',1,   7,   1,    14.680,     4.790,     0.000,     0.000,     0.000,     0.000,   2
52804,'LD',1,   7,   1,    12.120,     1.730,     0.000,     0.000,     0.000,     0.000,   2
53004,'LD',1,   5,   1,    12.230,     4.070,     0.000,     0.000,     0.000,     0.000,   2
53204,'LD',1,   2,   1,     9.170,     2.330,     0.000,     0.000,     0.000,     0.000,   2
53404,'LD',1,   9,   1,     4.240,     1.390,     0.000,     0.000,     0.000,     0.000,   2
53604,'LD',1,   9,   1,     5.400,     1.630,     0.000,     0.000,     0.000,     0.000,   2
53804,'LD',1,   5,   1,     5.630,     1.620,     0.000,     0.000,     0.000,     0.000,   2
54404,'LD',1,   5,   1,     7.570,     3.220,     0.000,     0.000,     0.000,     0.000,   2
54801,'LD',1,   3,   2,     0.500,     0.160,     0.000,     0.000,     0.000,     0.000,   5
54801,'MI',0,   3,   2,     7.910,     2.370,     0.000,     0.000,     0.000,     0.000,   5
55004,'LD',1,   6,   1,    14.370,     4.080,     0.000,     0.000,     0.000,     0.000,   2
55201,'LD',1,   1,   1,    10.500,     3.360,     0.000,     0.000,     0.000,     0.000,   2
0 / END OF LOAD DATA, BEGIN GENERATOR DATA
 1151,'1 ',    21.000,     0.000,     0.000,     0.000,1.00000,    0,    60.000,   0.00000,   0.20000,   0.00000,   0.10000,1.00000,1,  100.0,    60.000,     0.000,   1,1.0000
 1231,'1 ',    11.000,     0.000,     0.000,     0.000,1.00000,    0,    31.500,   0.00000,   0.20000,   0.00000,   0.00000,1.00000,1,  100.0,    31.500,     0.000,   4,1.0000
 1251,'1 ',     6.800,     0.000,     0.000,     0.000,1.00000,    0,    19.450,   0.00000,   0.20000,   0.00000,   0.10000,1.00000,1,  100.0,    19.450,     0.000,   1,1.0000
 2231,'1 ',    21.000,     0.000,     0.000,     0.000,1.00000,    0,    60.000,   0.00000,   0.20000,   0.00000,   0.00000,1.00000,1,  100.0,    60.000,     0.000,   1,1.0000
 4071,'1 ',    24.800,     0.000,     0.000,     0.000,1.00000,    0,    71.000,   0.00000,   0.20000,   0.00000,   0.00000,1.00000,1,  100.0,    70.960,     0.000,   1,1.0000
10204,'1 ',     0.900,     0.000,     0.000,     0.000,1.00000,    0,     2.550,   0.00000,   0.20000,   0.00000,   0.20000,1.00000,1,  100.0,     2.550,     0.000,   4,1.0000
10204,'2 ',     0.200,     0.000,     0.000,     0.000,1.00000,    0,     0.660,   0.00000,   0.20000,   0.00000,   0.00000,1.00000,1,  100.0,     0.660,     0.000,   4,1.0000
10271,'1 ',    22.000,     0.000,    15.000,    -7.000,1.00000, 1021,    34.000,   0.00000,   0.22000,   0.00000,   0.00000,1.00000,0,   15.0,    22.000,     5.000,   3,1.0000
10272,'2 ',    22.000,     0.000,    15.000,    -7.000,1.00000, 1021,    34.000,   0.00000,   0.22000,   0.00000,   0.00000,1.00000,0,   15.0,    22.000,     5.000,   3,1.0000
10273,'3 ',    22.000,     0.000,    15.000,    -7.000,1.00000, 1021,    30.000,   0.00000,   0.22000,   0.00000,   0.00000,1.00000,0,   15.0,    22.000,     5.000,   3,1.0000
10274,'4 ',    23.000,     0.000,    15.000,    -7.000,1.00000, 1021,    34.000,   0.00000,   0.22000,   0.00000,   0.00000,1.00000,0,   15.0,    23.000,     5.000,   3,1.0000
10471,'1 ',   270.000,     0.000,   153.000,   -53.000,1.02000, 1042,   318.800,   0.00000,   0.22500,   0.00000,   0.00000,1.00000,0,  153.0,   270.000,    40.000,   3,1.0000
10472,'11',    90.000,     0.000,    60.000,   -30.000,1.02000, 1042,   100.900,   0.00000,   0.12500,   0.00000,   0.00000,1.00000,0,   60.0,    90.000,    20.000,   3,1.0000
10473,'12',    90.000,     0.000,    60.000,   -30.000,1.02000, 1042,   100.900,   0.00000,   0.12500,   0.00000,   0.00000,1.00000,0,   60.0,    90.000,    20.000,   3,1.0000
10474,'14',    90.000,     0.000,    60.000,   -30.000,1.02000, 1042,   100.900,   0.00000,   0.12500,   0.00000,   0.00000,1.00000,0,   60.0,    90.000,    20.000,   3,1.0000
10602,'1 ',     0.400,    -0.180,    -0.180,    -0.180,1.05000,    0,     1.200,   0.00000,   0.20000,   0.00000,   0.20000,1.00000,1,  100.0,     1.200,     0.000,   4,1.0000
10602,'2 ',     1.700,    -0.740,    -0.740,    -0.740,1.05000,    0,     4.850,   0.00000,   0.20000,   0.00000,   0.20000,1.00000,1,  100.0,     4.850,     0.000,   4,1.0000
10602,'3 ',     1.800,    -0.760,    -0.760,    -0.760,1.05000,    0,     5.000,   0.00000,   0.20000,   0.00000,   0.20000,1.00000,1,  100.0,     5.000,     0.000,   4,1.0000
11204,'1 ',     8.900,     0.000,     0.000,     0.000,1.05000,    0,    25.500,   0.00000,   0.20000,   0.00000,   0.20000,1.00000,1,  100.0,    25.500,     0.000,   2,1.0000
11671,'1 ',    54.600,    -4.575,    50.000,   -35.000,1.00000, 1161,    93.750,   0.00000,   0.16500,   0.00000,   0.00000,1.00000,1,   50.0,    76.500,     0.000,   4,1.0000
11672,'2 ',    54.600,    -4.575,    50.000,   -35.000,1.00000, 1161,    93.750,   0.00000,   0.16500,   0.00000,   0.00000,1.00000,1,   50.0,    76.500,     0.000,   4,1.0000
12804,'1 ',     3.000,     0.000,     0.000,     0.000,1.00000,    0,     8.500,   0.00000,   0.20000,   0.00000,   0.20000,1.00000,1,  100.0,     8.500,     0.000,   1,1.0000
12804,'2 ',     6.800,     0.000,     0.000,     0.000,1.00000,    0,    19.500,   0.00000,   0.20000,   0.00000,   0.00000,1.00000,1,  100.0,    19.500,     0.000,   1,1.0000
13404,'1 ',     0.200,     0.000,     0.000,     0.000,1.05000,    0,     0.660,   0.00000,   0.20000,   0.00000,   0.20000,1.00000,1,  100.0,     0.660,     0.000,   4,1.0000
14002,'3 ',     2.100,    -0.920,    -0.920,    -0.920,1.05000,    0,     6.000,   0.00000,   0.20000,   0.00000,   0.10000,1.00000,1,  100.0,     6.000,     0.000,   3,1.0000
14404,'1 ',     1.600,     0.000,     0.000,     0.000,1.00000,    0,     4.500,   0.00000,   0.20000,   0.00000,   0.00000,1.00000,1,  100.0,     4.500,     0.000,   2,1.0000
14604,'1 ',     0.000,     0.000,     1.000,    -1.000,1.05000,    0,     7.000,   0.00000,   0.15000,   0.00000,   0.10000,1.00000,0,    1.0,     0.000,     0.000,   5,1.0000
16302,'1 ',     1.200,     0.000,     0.000,     0.000,1.00000,    0,     3.400,   0.00000,   0.20000,   0.00000,   0.00000,1.00000,1,  100.0,     3.400,     0.000,   1,1.0000
16302,'2 ',     1.200,     0.000,     0.000,     0.000,1.00000,    0,     3.400,   0.00000,   0.20000,   0.00000,   0.00000,1.00000,1,  100.0,     3.400,     0.000,   1,1.0000
16302,'3 ',     2.400,     0.000,     0.000,     0.000,1.00000,    0,     6.800,   0.00000,   0.20000,   0.00000,   0.00000,1.00000,1,  100.0,     6.800,     0.000,   1,1.0000
16604,'1 ',     1.200,    -0.520,    -0.520,    -0.520,1.05000,    0,     3.400,   0.00000,   0.20000,   0.00000,   0.20000,1.00000,1,  100.0,     3.400,     0.000,   4,1.0000
16604,'2 ',     6.500,     0.000,     0.000,     0.000,1.05000,    0,    18.700,   0.00000,   0.20000,   0.00000,   0.20000,1.00000,1,  100.0,    18.700,     0.000,   4,1.0000
16873,'3 ',     8.000,     0.000,     7.000,    -1.000,1.00000, 1681,    11.500,   0.00000,   0.25000,   0.00000,   0.00000,1.00000,0,    7.0,     8.000,     2.000,   3,1.0000
17004,'4 ',     1.200,     0.000,     0.000,     0.000,1.05000,    0,     3.450,   0.00000,   0.20000,   0.00000,   0.20000,1.00000,1,  100.0,     3.400,     0.000,   2,1.0000
17004,'5 ',     1.100,    -0.470,    -0.470,    -0.470,1.05000,    0,     3.200,   0.00000,   0.20000,   0.00000,   0.20000,1.00000,1,  100.0,     3.100,     0.000,   4,1.0000
17073,'3 ',    22.500,     0.000,     7.000,   -10.000,1.00000, 1701,    30.000,   0.00000,   0.20000,   0.00000,   0.00000,1.00000,0,    7.0,    22.500,     5.000,   3,1.0000
17074,'4 ',    22.500,     0.000,     7.000,   -10.000,1.00000, 1701,    30.000,   0.00000,   0.20000,   0.00000,   0.00000,1.00000,0,    7.0,    22.500,     5.000,   3,1.0000
17671,'1 ',    10.000,     0.000,     7.000,    -3.000,1.00000, 1701,    12.500,   0.00000,   0.15000,   0.00000,   0.00000,1.00000,0,    7.0,    10.000,     3.000,   3,1.0000
17672,'2 ',    10.000,     0.000,     7.000,    -3.000,1.00000, 1701,    12.500,   0.00000,   0.13500,   0.00000,   0.00000,1.00000,0,    7.0,    10.000,     3.000,   3,1.0000
18404,'1 ',     1.800,     0.000,     0.000,     0.000,1.00000,    0,     5.200,   0.00000,   0.20000,   0.00000,   0.20000,1.00000,1,  100.0,     5.200,     0.000,   2,1.0000
19004,'1 ',     0.900,     0.000,     0.000,     0.000,1.05000,    0,     2.550,   0.00000,   0.25400,   0.00000,   0.10000,1.00000,1,  100.0,     2.550,     0.000,   2,1.0000
19402,'1 ',     8.300,    -5.882,     6.000,   -12.000,1.00000,    0,    25.000,   0.00000,   0.20000,   0.00000,   0.10000,1.00000,1,    6.0,    25.000,     0.000,   1,1.0000
19471,'1 ',    92.900,   -16.120,    75.000,   -50.000,1.00000, 1941,   153.000,   0.00000,   0.15300,   0.00000,   0.00000,1.00000,1,   75.0,   130.000,    60.000,   4,1.0000
22204,'1 ',     1.600,    -0.700,    -0.700,    -0.700,1.00000,    0,     4.600,   0.00000,   0.20000,   0.00000,   0.20000,1.00000,1,  100.0,     4.600,     0.000,   3,1.0000
22204,'2 ',     2.100,    -0.920,    -0.920,    -0.920,1.00000,    0,     6.000,   0.00000,   0.20000,   0.00000,   0.20000,1.00000,1,  100.0,     6.000,     0.000,   3,1.0000
22204,'3 ',     2.100,     0.000,     0.000,     0.000,1.00000,    0,     5.950,   0.00000,   0.20000,   0.00000,   0.20000,1.00000,1,  100.0,     5.950,     0.000,   4,1.0000
27204,'5 ',     4.000,     0.000,     1.000,    -1.000,1.00000,    0,     5.000,   0.00000,   0.27000,   0.00000,   0.10000,1.00000,0,    1.0,     4.000,     0.000,   3,1.0000
27471,'1 ',    60.000,     0.000,    42.000,    -3.000,1.00000, 2741,    75.000,   0.00000,   0.16000,   0.00000,   0.00000,1.00000,0,   42.0,    60.000,    25.000,   3,1.0000
27472,'2 ',    60.000,     0.000,    40.000,    -3.000,1.00000, 2741,    75.000,   0.00000,   0.16000,   0.00000,   0.00000,1.00000,0,   40.0,    60.000,    25.000,   3,1.0000
27473,'3 ',   120.000,     0.000,    82.000,   -48.000,1.04000, 2742,   150.000,   0.00000,   0.14600,   0.00000,   0.00000,1.00000,0,   82.0,   120.000,    30.000,   3,1.0000
27804,'1 ',     1.200,    -0.500,    -0.500,    -0.500,1.00000,    0,     3.300,   0.00000,   0.20000,   0.00000,   0.20000,1.00000,1,  100.0,     3.300,     0.000,   4,1.0000
27804,'2 ',     0.200,     0.000,     0.000,     0.000,1.00000,    0,     0.675,   0.00000,   0.20000,   0.00000,   0.20000,1.00000,1,  100.0,     0.675,     0.000,   2,1.0000
28002,'1 ',     5.300,    -2.290,    -2.290,    -2.290,1.00000,    0,    15.000,   0.00000,   0.20000,   0.00000,   0.10000,1.00000,1,  100.0,    15.000,     0.000,   4,1.0000
29671,'CT',   164.200,   -22.063,   173.000,  -106.000,1.04000, 4462,   288.000,   0.00000,   0.14500,   0.00000,   0.00000,1.00000,1,  173.0,   230.000,   138.000,   4,1.0000
29672,'ST',    85.700,   -11.478,    90.000,   -47.000,1.04000, 4462,   150.000,   0.00000,   0.15500,   0.00000,   0.00000,1.00000,1,   90.0,   120.000,    89.000,   4,1.0000
30671,'1 ',    15.000,     0.000,    13.000,    -4.000,1.00000, 3061,    21.400,   0.00000,   0.16000,   0.00000,   0.00000,1.00000,0,    3.0,    15.000,     4.000,   3,1.0000
30671,'2 ',     4.000,     0.000,     3.000,    -1.000,1.00000, 3061,     5.700,   0.00000,   0.14000,   0.00000,   0.00000,1.00000,0,    3.0,     4.000,     1.000,   3,1.0000
31004,'1 ',     0.900,     0.000,     0.000,     0.000,1.00000,    0,     2.550,   0.00000,   0.20000,   0.00000,   0.20000,1.00000,1,  100.0,     2.550,     0.000,   2,1.0000
31271,'1 ',   284.900,   -25.506,   200.000,  -114.000,1.04000, 4462,   500.000,   0.00000,   0.19000,   0.00000,   0.00000,1.00000,1,  200.0,   399.000,   163.000,   4,1.0000
32604,'1 ',     0.000,     0.000,     1.000,    -1.000,1.05000,    0,    15.000,   0.00000,   0.15000,   0.00000,   0.10000,1.00000,0,    1.0,     0.000,     0.000,   5,1.0000
33004,'1 ',     3.300,     0.000,     0.000,     0.000,1.00000,    0,     9.350,   0.00000,   0.20000,   0.00000,   0.20000,1.00000,1,  100.0,     9.350,     0.000,   2,1.0000
35078,'8 ',    71.400,   -13.143,    62.000,   -40.000,1.00000, 3501,   118.000,   0.00000,   0.13700,   0.00000,   0.00000,1.00000,1,   62.0,   100.000,    40.000,   3,1.0000
35804,'1 ',     5.300,    -2.290,    -2.290,    -2.290,1.05000,    0,    15.000,   0.00000,   0.20000,   0.00000,   0.20000,1.00000,1,  100.0,    15.000,     0.000,   4,1.0000
35804,'2 ',     1.700,    -0.760,    -0.760,    -0.760,1.05000,    0,     5.300,   0.00000,   0.20000,   0.00000,   0.20000,1.00000,1,  100.0,     4.980,     0.000,   4,1.0000
35804,'3 ',     4.200,    -1.840,    -1.840,    -1.840,1.05000,    0,    12.000,   0.00000,   0.20000,   0.00000,   0.20000,1.00000,1,  100.0,    12.000,     0.000,   4,1.0000
35804,'4 ',     0.900,     0.000,     0.000,     0.000,1.05000,    0,     2.550,   0.00000,   0.20000,   0.00000,   0.20000,1.00000,1,  100.0,     2.550,     0.000,   4,1.0000
35804,'5 ',     0.900,     0.000,     0.000,     0.000,1.05000,    0,     2.550,   0.00000,   0.20000,   0.00000,   0.20000,1.00000,1,  100.0,     2.450,     0.000,   4,1.0000
38204,'1 ',     3.700,     0.000,     0.000,     0.000,1.00000,    0,    10.500,   0.00000,   0.20000,   0.00000,   0.20000,1.00000,1,  100.0,    10.500,     0.000,   4,1.0000
38204,'2 ',     1.600,     0.000,     0.000,     0.000,1.00000,    0,     4.500,   0.00000,   0.20000,   0.00000,   0.20000,1.00000,1,  100.0,     4.500,     0.000,   4,1.0000
39471,'1 ',   149.276,    -4.279,   160.000,   -70.000,1.00000,    0,   359.000,   0.00000,   0.17900,   0.00000,   0.00000,1.00000,1,  160.0,   305.000,   115.000,   3,1.0000
39472,'2 ',   149.800,    69.512,   160.000,   -70.000,1.05000, 3954,   359.000,   0.00000,   0.17900,   0.00000,   0.00000,1.00000,1,  160.0,   305.000,   115.000,   3,1.0000
39473,'3 ',   149.276,    -4.279,   160.000,   -70.000,1.00000,    0,   359.000,   0.00000,   0.17900,   0.00000,   0.00000,1.00000,1,  160.0,   305.000,   115.000,   3,1.0000
39672,'2 ',    30.000,     0.000,    15.000,     0.000,1.00000, 3961,    40.000,   0.00000,   0.12200,   0.00000,   0.00000,1.00000,0,   15.0,    30.000,    10.000,   3,1.0000
39675,'GT',    90.000,     0.000,    60.000,   -19.000,1.00000, 3961,   100.900,   0.00000,   0.12500,   0.00000,   0.00000,1.00000,0,   60.0,    90.000,    30.000,   3,1.0000
42404,'1 ',    15.000,     0.000,     5.000,     0.000,1.05000,    0,    20.000,   0.00000,   0.11700,   0.00000,   0.10500,1.07000,0,    5.0,    15.000,     6.000,   3,1.0000
42404,'2 ',    15.000,     0.000,     5.000,     0.000,1.05000,    0,    20.000,   0.00000,   0.11700,   0.00000,   0.10500,1.07000,0,    5.0,    15.000,     6.000,   3,1.0000
42404,'3 ',    15.000,     0.000,     5.000,     0.000,1.05000,    0,    20.000,   0.00000,   0.11700,   0.00000,   0.10000,1.07000,0,    5.0,    15.000,     6.000,   3,1.0000
42474,'4 ',   118.000,     0.000,    55.000,   -20.000,1.04000, 4462,   132.100,   0.00000,   0.13900,   0.00000,   0.00000,1.00000,0,   55.0,   118.000,    40.000,   3,1.0000
42475,'5 ',   109.000,     0.000,    55.000,   -20.000,1.04000, 4462,   132.100,   0.00000,   0.13900,   0.00000,   0.00000,1.00000,0,   55.0,   109.000,    20.000,   3,1.0000
44471,'1 ',    15.000,     0.000,     9.000,   -10.000,1.00000, 4441,    18.800,   0.00000,   0.27000,   0.00000,   0.00000,1.00000,0,    3.0,    15.000,     5.000,   3,1.0000
44471,'4 ',     4.000,     0.000,     3.000,    -1.000,1.00000, 4441,     5.000,   0.00000,   0.27000,   0.00000,   0.00000,1.00000,0,    3.0,     4.000,     1.000,   3,1.0000
44472,'2 ',    15.000,     0.000,     9.000,   -10.000,1.00000, 4441,    18.800,   0.00000,   0.27000,   0.00000,   0.00000,1.00000,0,    9.0,    15.000,     5.000,   3,1.0000
44671,'1 ',   120.000,     0.000,    65.000,   -43.000,1.04000, 4462,   150.000,   0.00000,   0.16700,   0.00000,   0.00000,1.00000,0,   65.0,   120.000,    60.000,   3,1.0000
44672,'2 ',   120.000,     0.000,    66.000,   -46.000,1.04000, 4462,   150.000,   0.00000,   0.16700,   0.00000,   0.00000,1.00000,0,   66.0,   120.000,    60.000,   3,1.0000
44673,'3 ',   270.000,     0.000,   100.000,   -48.000,1.04000, 4462,   318.800,   0.00000,   0.22500,   0.00000,   0.00000,1.00000,0,  100.0,   270.000,    60.000,   3,1.0000
46210,'1 ',     0.000,     0.000,     1.000,    -1.000,1.05000,    0,    20.000,   0.00000,   0.20000,   0.00000,   0.10000,1.00000,0,    1.0,     0.000,     0.000,   5,1.0000
47802,'1 ',    24.500,     0.000,     0.000,     0.000,1.00000,    0,    70.000,   0.00000,   0.20000,   0.00000,   0.10000,1.00000,1,  100.0,    70.000,     0.000,   4,1.0000
47802,'2 ',     8.700,     0.000,     0.000,     0.000,1.00000,    0,    24.800,   0.00000,   0.20000,   0.00000,   0.10000,1.00000,1,  100.0,    24.800,     0.000,   4,1.0000
49478,'8 ',   107.100,   -23.071,    93.000,   -59.000,1.00000, 4942,   177.000,   0.00000,   0.12100,   0.00000,   0.00000,1.00000,1,   93.0,   150.000,    55.000,   3,1.0000
49604,'1 ',     1.100,    -0.460,    -0.460,    -0.460,1.05000,    0,     3.000,   0.00000,   0.20000,   0.00000,   0.20000,1.00000,1,  100.0,     3.000,     0.000,   4,1.0000
49604,'2 ',     1.100,     0.000,     0.000,     0.000,1.05000,    0,     3.000,   0.00000,   0.20000,   0.00000,   0.20000,1.00000,1,  100.0,     3.000,     0.000,   4,1.0000
50004,'1 ',     2.700,    -1.170,    -1.170,    -1.170,1.05000,    0,     7.650,   0.00000,   0.20000,   0.00000,   0.20000,1.00000,1,  100.0,     7.650,     0.000,   2,1.0000
50274,'14',   150.000,     0.000,    75.000,   -40.000,1.04000, 4462,   170.000,   0.00000,   0.16200,   0.00000,   0.00000,1.00000,0,   75.0,   150.000,    50.000,   3,1.0000
50275,'15',   150.000,     0.000,    75.000,   -60.000,1.04000, 4462,   170.000,   0.00000,   0.16200,   0.00000,   0.00000,1.00000,0,   75.0,   150.000,    50.000,   3,1.0000
50276,'16',   170.000,     0.000,    80.000,   -40.000,1.04000, 4462,   230.000,   0.00000,   0.15800,   0.00000,   0.00000,1.00000,0,   80.0,   170.000,    30.000,   3,1.0000
51471,'1 ',    60.000,     0.000,    25.000,   -10.000,1.04000, 5142,    75.000,   0.00000,   0.13500,   0.00000,   0.00000,1.00000,0,   25.0,    60.000,    30.000,   3,1.0000
51472,'2 ',    60.000,     0.000,    25.000,   -10.000,1.04000, 5142,    75.000,   0.00000,   0.13500,   0.00000,   0.00000,1.00000,0,   25.0,    60.000,    30.000,   3,1.0000
51473,'3 ',   256.000,     0.000,   110.000,   -45.000,1.04000, 5142,   294.000,   0.00000,   0.20700,   0.00000,   0.00000,1.00000,0,  110.0,   256.000,    40.000,   3,1.0000
51474,'4 ',   256.000,     0.000,   110.000,   -45.000,1.04000, 5142,   294.000,   0.00000,   0.20700,   0.00000,   0.00000,1.00000,0,  110.0,   256.000,    40.000,   3,1.0000
51771,'CT',   184.200,   -52.981,   175.000,   -92.000,1.00000, 5172,   292.000,   0.00000,   0.17000,   0.00000,   0.00000,1.00000,1,  175.0,   258.000,   155.000,   4,1.0000
51772,'ST',    99.900,   -30.275,   100.000,   -52.000,1.00000, 5172,   166.000,   0.00000,   0.13100,   0.00000,   0.00000,1.00000,1,  100.0,   140.000,   111.000,   4,1.0000
52071,'1 ',   -72.102,    -3.399,    40.000,   -35.000,1.02000, 5202,    87.500,   0.00000,   0.15000,   0.00000,   0.00000,1.00000,1,   40.0,    73.000,   -73.000,   3,1.0000
52071,'2 ',   -72.102,    -3.399,    40.000,   -35.000,1.02000, 5202,    87.500,   0.00000,   0.15000,   0.00000,   0.00000,1.00000,1,   40.0,    73.000,   -73.000,   3,1.0000
52071,'3 ',   -72.102,    -3.399,    40.000,   -35.000,1.02000, 5202,    87.500,   0.00000,   0.15000,   0.00000,   0.00000,1.00000,1,   40.0,    73.000,   -73.000,   3,1.0000
52071,'4 ',    73.000,     0.000,    40.000,   -35.000,1.02000, 5202,    87.500,   0.00000,   0.15000,   0.00000,   0.00000,1.00000,0,   40.0,    73.000,   -73.000,   3,1.0000
52204,'1 ',     4.400,     0.000,     0.000,     0.000,1.00000,    0,    12.600,   0.00000,   0.20000,   0.00000,   0.20000,1.00000,1,  100.0,    12.600,     0.000,   4,1.0000
52604,'1 ',     1.500,    -0.660,    -0.660,    -0.660,1.05000,    0,     4.300,   0.00000,   0.20000,   0.00000,   0.20000,1.00000,1,  100.0,     4.290,     0.000,   4,1.0000
52604,'2 ',     2.700,     0.000,     0.000,     0.000,1.05000,    0,     7.600,   0.00000,   0.20000,   0.00000,   0.20000,1.00000,1,  100.0,     7.600,     0.000,   4,1.0000
52804,'1 ',     5.300,    -2.290,    -2.290,    -2.290,1.05000,    0,    15.000,   0.00000,   0.20000,   0.00000,   0.20000,1.00000,1,  100.0,    15.000,     0.000,   4,1.0000
52804,'2 ',     2.400,    -1.040,    -1.040,    -1.040,1.05000,    0,     6.800,   0.00000,   0.20000,   0.00000,   0.20000,1.00000,1,  100.0,     6.800,     0.000,   2,1.0000
52804,'3 ',     1.400,    -0.610,    -0.610,    -0.610,1.05000,    0,     4.000,   0.00000,   0.20000,   0.00000,   0.20000,1.00000,1,  100.0,     4.000,     0.000,   4,1.0000
52804,'5 ',     1.800,     0.000,     0.000,     0.000,1.05000,    0,     5.100,   0.00000,   0.20000,   0.00000,   0.20000,1.00000,1,  100.0,     5.100,     0.000,   2,1.0000
53404,'1 ',     2.100,    -0.910,    -0.910,    -0.910,1.05000,    0,     6.000,   0.00000,   0.20000,   0.00000,   0.20000,1.00000,1,  100.0,     5.940,     0.000,   3,1.0000
53604,'1 ',     1.800,    -0.760,    -0.760,    -0.760,1.05000,    0,     5.000,   0.00000,   0.20000,   0.00000,   0.20000,1.00000,1,  100.0,     5.000,     0.000,   4,1.0000
53604,'2 ',     1.700,    -0.730,    -0.730,    -0.730,1.05000,    0,     4.800,   0.00000,   0.20000,   0.00000,   0.20000,1.00000,1,  100.0,     4.800,     0.000,   4,1.0000
53604,'3 ',     4.900,     0.000,     0.000,     0.000,1.05000,    0,    14.000,   0.00000,   0.20000,   0.00000,   0.20000,1.00000,1,  100.0,    14.000,     0.000,   4,1.0000
53604,'4 ',    11.000,     0.000,     0.000,     0.000,1.05000,    0,    31.500,   0.00000,   0.20000,   0.00000,   0.20000,1.00000,1,  100.0,    31.500,     0.000,   4,1.0000
54801,'1 ',     0.000,     0.000,     1.000,    -1.000,1.05000,    0,    10.000,   0.00000,   0.13000,   0.00000,   0.10000,1.00000,0,    1.0,     0.000,     0.000,   5,1.0000
55004,'1 ',     4.100,    -1.800,    -1.800,    -1.800,1.05000,    0,    11.800,   0.00000,   0.20000,   0.00000,   0.20000,1.00000,1,  100.0,    11.800,     0.000,   4,1.0000
55004,'2 ',     7.100,     0.000,     0.000,     0.000,1.05000,    0,    20.250,   0.00000,   0.20000,   0.00000,   0.20000,1.00000,1,  100.0,    20.250,     0.000,   4,1.0000
0 / END OF GENERATOR DATA, BEGIN BRANCH DATA
   11, 42404,'1 ',   0.00360,   0.00391,   0.00207, 9999.00, 9999.00,10998.90,  0.00000,  0.00000,  0.00000,  0.00000,1,   1.00,   2,1.0000
   12,-25404,'1 ',   0.00534,   0.00795,   0.00407, 9999.00, 9999.00,10998.90,  0.00000,  0.00000,  0.00000,  0.00000,1,   1.40,   1,1.0000
   12,-25404,'3 ',   0.00594,   0.00866,   0.00435, 9999.00, 9999.00,10998.90,  0.00000,  0.00000,  0.00000,  0.00000,1,   0.00,   1,1.0000
   12, 46504,'1 ',   0.02132,   0.02114,   0.00329, 9999.00, 9999.00,10998.90,  0.00000,  0.00000,  0.00000,  0.00000,1,   5.14,   1,1.0000
   12, 46504,'2 ',   0.01937,   0.01703,   0.00256, 9999.00, 9999.00,10998.90,  0.00000,  0.00000,  0.00000,  0.00000,1,   3.96,   1,1.0000
   41, -1741,'1 ',   0.00260,   0.00480,   0.07610,  100.00,  100.00,  107.00,  0.00000,  0.00000,  0.00000,  0.00000,0,   5.00,   1,1.0000
   41, -3871,'1 ',   0.00210,   0.00380,   0.06090,  100.00,  100.00,  107.00,  0.00000,  0.00000,  0.00000,  0.00000,1,   4.00,   1,1.0000
   51,  2541,'1 ',   0.00310,   0.00960,   0.03810,  140.00,  140.00,  252.00,  0.00000,  0.00000,  0.00000,  0.00000,1,   6.00,   1,1.0000
   51,  4651,'1 ',   0.00280,   0.00880,   0.03500,  140.00,  140.00,  252.00,  0.00000,  0.00000,  0.00000,  0.00000,1,   5.50,   1,1.0000
 1021,  2121,'1 ',   0.02830,   0.06260,   0.00590,  107.00,  107.00,  138.60,  0.00000,  0.00000,  0.00000,  0.00000,1,  18.20,   1,1.0000
 1021,  2361,'1 ',   0.05100,   0.11280,   0.01050,  107.00,  107.00,  117.70,  0.00000,  0.00000,  0.00000,  0.00000,1,  32.80,   1,1.0000
 1021,  3281,'1 ',   0.01480,   0.03270,   0.00310,  107.00,  107.00,  117.70,  0.00000,  0.00000,  0.00000,  0.00000,1,   9.50,   1,1.0000
 1021,  3541,'1 ',   0.01390,   0.03810,   0.01200,  107.00,  107.00,  138.60,  0.00000,  0.00000,  0.00000,  0.00000,1,  11.70,   1,1.0000
 1041,  5481,'1 ',   0.00490,   0.01070,   0.00100,  107.00,  107.00,  117.70,  0.00000,  0.00000,  0.00000,  0.00000,1,   3.10,   1,1.0000
 1042,  3202,'1 ',   0.00300,   0.02220,   0.03350,  431.00,  431.00,  474.10,  0.00000,  0.00000,  0.00000,  0.00000,1,  25.60,   1,1.0000
 1042,  3202,'2 ',   0.00300,   0.02220,   0.03350,  431.00,  431.00,  474.10,  0.00000,  0.00000,  0.00000,  0.00000,1,  25.60,   1,1.0000
 1042,  4722,'1 ',   0.00320,   0.02340,   0.03530,  431.00,  431.00,  569.80,  0.00000,  0.00000,  0.00000,  0.00000,1,  27.00,   1,1.0000
 1061, 10619,'1 ',   0.00050,   0.00120,   0.00010,   34.00,   34.00,   62.70,  0.00000,  0.00000,  0.00000,  0.00000,1,   0.30,   1,1.0000
 1081,  3281,'1 ',   0.00390,   0.01240,   0.00390,   68.00,  112.00,  121.00,  0.00000,  0.00000,  0.00000,  0.00000,1,   3.80,   1,1.0000
 1101,  2161,'1 ',   0.00310,   0.00690,   0.00060,   45.00,  107.00,  117.70,  0.00000,  0.00000,  0.00000,  0.00000,1,   2.00,   1,1.0000
 1121,  1151,'1 ',   0.00870,   0.02700,   0.10800,  140.00,  140.00,  252.00,  0.00000,  0.00000,  0.00000,  0.00000,1,  17.00,   1,1.0000
 1121,  1301,'1 ',   0.01260,   0.08920,   0.00810,  137.00,  137.00,  180.40,  0.00000,  0.00000,  0.00000,  0.00000,1,  25.00,   1,1.0000
 1121,  1541,'1 ',   0.03520,   0.07770,   0.00730,  107.00,  107.00,  138.60,  0.00000,  0.00000,  0.00000,  0.00000,1,  22.60,   1,1.0000
 1121,  4901,'1 ',   0.00350,   0.00770,   0.00080,   34.00,   34.00,   37.40,  0.00000,  0.00000,  0.00000,  0.00000,1,   2.20,   1,1.0000
 1121,  4911,'2 ',   0.00370,   0.00830,   0.00080,   34.00,   34.00,   37.40,  0.00000,  0.00000,  0.00000,  0.00000,1,   2.40,   1,1.0000
 1122,  1742,'1 ',   0.00620,   0.04620,   0.06970,  431.00,  431.00,  474.10,  0.00000,  0.00000,  0.00000,  0.00000,1,  53.30,   1,1.0000
 1122,  2742,'1 ',   0.01020,   0.07610,   0.11480,  275.00,  431.00,  569.80,  0.00000,  0.00000,  0.00000,  0.00000,1,  87.81,   1,1.0000
 1141,  3501,'1 ',   0.05400,   0.12280,   0.01160,   68.00,   93.00,  102.30,  0.00000,  0.00000,  0.00000,  0.00000,1,  35.80,   1,1.0000
 1141,  4941,'1 ',   0.02250,   0.07210,   0.00740,   93.00,   93.00,  144.10,  0.00000,  0.00000,  0.00000,  0.00000,1,  21.60,   1,1.0000
 1141, 11461,'1 ',   0.00000,   0.00010,   0.00000,  107.00,  107.00,  138.60,  0.00000,  0.00000,  0.00000,  0.00000,1,   0.00,   1,1.0000
 1161,  1171,'1 ',   0.00060,   0.00160,   0.00640,  140.00,  140.00,  252.00,  0.00000,  0.00000,  0.00000,  0.00000,1,   1.00,   1,1.0000
...